# generated using pymatgen
data_Li2CoSiO4
_symmetry_space_group_name_H-M   Pmn2_1
_cell_length_a   6.18910139
_cell_length_b   5.45687212
_cell_length_c   4.99425413
_cell_angle_alpha   90.00000000
_cell_angle_beta   90.00000000
_cell_angle_gamma   90.00000000
_symmetry_Int_Tables_number   31
_chemical_formula_structural   Li2CoSiO4
_chemical_formula_sum   'Li4 Co2 Si2 O8'
_cell_volume   168.67161817
_cell_formula_units_Z   2
loop_
 _symmetry_equiv_pos_site_id
 _symmetry_equiv_pos_as_xyz
  1  'x, y, z'
  2  '-x+1/2, -y, z+1/2'
  3  '-x, y, z'
  4  'x+1/2, -y, z+1/2'
loop_
 _atom_type_symbol
 _atom_type_oxidation_number
  Li+  1.0
  Co2+  2.0
  Si4+  4.0
  O2-  -2.0
loop_
 _atom_site_type_symbol
 _atom_site_label
 _atom_site_symmetry_multiplicity
 _atom_site_fract_x
 _atom_site_fract_y
 _atom_site_fract_z
 _atom_site_occupancy
  Li+  Li0  4  0.24889975  0.16811100  0.99284950  1
  Co2+  Co1  2  0.00000000  0.34054750  0.49306900  1
  Si4+  Si2  2  0.00000000  0.67307450  0.99939850  1
  O2-  O3  4  0.21786425  0.81875000  0.89181050  1
  O2-  O4  2  0.00000000  0.38458900  0.89430100  1
  O2-  O5  2  0.00000000  0.67308050  0.33029850  1
