# generated using pymatgen
data_Li2SiNiO4
_symmetry_space_group_name_H-M   Pmn2_1
_cell_length_a   6.31138400
_cell_length_b   5.36762504
_cell_length_c   4.91842054
_cell_angle_alpha   90.00000000
_cell_angle_beta   90.00000000
_cell_angle_gamma   90.00000000
_symmetry_Int_Tables_number   31
_chemical_formula_structural   Li2SiNiO4
_chemical_formula_sum   'Li4 Si2 Ni2 O8'
_cell_volume   166.62203506
_cell_formula_units_Z   2
loop_
 _symmetry_equiv_pos_site_id
 _symmetry_equiv_pos_as_xyz
  1  'x, y, z'
  2  '-x+1/2, -y, z+1/2'
  3  '-x, y, z'
  4  'x+1/2, -y, z+1/2'
loop_
 _atom_type_symbol
 _atom_type_oxidation_number
  Li+  1.0
  Si4+  4.0
  Ni2+  2.0
  O2-  -2.0
loop_
 _atom_site_type_symbol
 _atom_site_label
 _atom_site_symmetry_multiplicity
 _atom_site_fract_x
 _atom_site_fract_y
 _atom_site_fract_z
 _atom_site_occupancy
  Li+  Li0  4  0.24999725  0.82850525  0.50798800  1
  Si4+  Si1  2  0.00000000  0.66691075  0.99766800  1
  Ni2+  Ni2  2  0.00000000  0.32400925  0.51101400  1
  O2-  O3  4  0.21478325  0.81408175  0.10372400  1
  O2-  O4  2  0.00000000  0.37446725  0.10572800  1
  O2-  O5  2  0.00000000  0.66681725  0.66195900  1
