# generated using pymatgen
data_LiFeSO4F
_symmetry_space_group_name_H-M   P-1
_cell_length_a   5.25236157
_cell_length_b   5.59647139
_cell_length_c   7.40295968
_cell_angle_alpha   107.24829731
_cell_angle_beta   107.29243151
_cell_angle_gamma   97.06602877
_symmetry_Int_Tables_number   2
_chemical_formula_structural   LiFeSO4F
_chemical_formula_sum   'Li2 Fe2 S2 O8 F2'
_cell_volume   193.03491856
_cell_formula_units_Z   2
loop_
 _symmetry_equiv_pos_site_id
 _symmetry_equiv_pos_as_xyz
  1  'x, y, z'
  2  '-x, -y, -z'
loop_
 _atom_type_symbol
 _atom_type_oxidation_number
  Li+  1.0
  Fe2+  2.0
  S6+  6.0
  O2-  -2.0
  F-  -1.0
loop_
 _atom_site_type_symbol
 _atom_site_label
 _atom_site_symmetry_multiplicity
 _atom_site_fract_x
 _atom_site_fract_y
 _atom_site_fract_z
 _atom_site_occupancy
  Li+  Li0  2  0.26371500  0.62117000  0.78646200  1
  Fe2+  Fe1  1  0.00000000  0.00000000  0.00000000  1
  Fe2+  Fe2  1  0.00000000  0.00000000  0.50000000  1
  S6+  S3  2  0.32505750  0.63233300  0.24455200  1
  O2-  O4  2  0.10598950  0.65088000  0.33604450  1
  O2-  O5  2  0.27202350  0.75514900  0.08759100  1
  O2-  O6  2  0.32471050  0.35556500  0.14868350  1
  O2-  O7  2  0.40059450  0.24709700  0.59855450  1
  F-  F8  2  0.11723450  0.90824900  0.75450450  1
