data_Cr2O3_romb
_audit_creation_date              2022-06-09
_audit_creation_method            'Materials Studio'
_symmetry_space_group_name_H-M    'R-3C'
_symmetry_Int_Tables_number       167
_symmetry_cell_setting            trigonal
loop_
_symmetry_equiv_pos_as_xyz
  x,y,z
  z,x,y
  y,z,x
  -y+1/2,-x+1/2,-z+1/2
  -x+1/2,-z+1/2,-y+1/2
  -z+1/2,-y+1/2,-x+1/2
  -x,-y,-z
  -z,-x,-y
  -y,-z,-x
  y+1/2,x+1/2,z+1/2
  x+1/2,z+1/2,y+1/2
  z+1/2,y+1/2,x+1/2
_cell_length_a                    5.3590
_cell_length_b                    5.3590
_cell_length_c                    5.3590
_cell_angle_alpha                 55.1300
_cell_angle_beta                  55.1300
_cell_angle_gamma                 55.1300
loop_
_atom_site_label
_atom_site_type_symbol
_atom_site_fract_x
_atom_site_fract_y
_atom_site_fract_z
_atom_site_U_iso_or_equiv
_atom_site_adp_type
_atom_site_occupancy
O1     O    -0.05700   0.55700   0.25000   0.00000  Uiso   1.00
CR1    Cr    0.15200   0.15200   0.15200   0.00000  Uiso   1.00
loop_
_geom_bond_atom_site_label_1
_geom_bond_atom_site_label_2
_geom_bond_distance
_geom_bond_site_symmetry_2
_ccdc_geom_bond_type
O1     CR1     1.959   7_565 S
O1     CR1     1.959   10_455 S
O1     CR1     2.023   4     S
CR1    O1      1.959   7_565 S
CR1    O1      1.959   8_556 S
CR1    O1      1.959   9_655 S
CR1    O1      2.023   3     S
CR1    O1      2.023   2     S
