data_GeO2_alpha
_audit_creation_date              2022-06-09
_audit_creation_method            'Materials Studio'
_symmetry_space_group_name_H-M    'P3121'
_symmetry_Int_Tables_number       152
_symmetry_cell_setting            trigonal
loop_
_symmetry_equiv_pos_as_xyz
  x,y,z
  -y,x-y,z+1/3
  -x+y,-x,z+2/3
  y,x,-z
  x-y,-y,-z+2/3
  -x,-x+y,-z+1/3
_cell_length_a                    4.9845
_cell_length_b                    4.9845
_cell_length_c                    5.6477
_cell_angle_alpha                 90.0000
_cell_angle_beta                  90.0000
_cell_angle_gamma                 120.0000
loop_
_atom_site_label
_atom_site_type_symbol
_atom_site_fract_x
_atom_site_fract_y
_atom_site_fract_z
_atom_site_U_iso_or_equiv
_atom_site_adp_type
_atom_site_occupancy
O      O     0.39650   0.30220   0.24220   0.00000  Uiso   1.00
GE     Ge    0.45130  -0.00000   0.33333   0.00000  Uiso   1.00
loop_
_geom_bond_atom_site_label_1
_geom_bond_atom_site_label_2
_geom_bond_distance
_geom_bond_site_symmetry_2
_ccdc_geom_bond_type
O      GE      1.738   .     S
O      GE      1.739   3_664 S
GE     O       1.738   5     S
GE     O       1.739   2_655 S
GE     O       1.739   6_655 S
