data_SiC
_audit_creation_date              2022-06-09
_audit_creation_method            'Materials Studio'
_symmetry_space_group_name_H-M    'P63MC'
_symmetry_Int_Tables_number       186
_symmetry_cell_setting            hexagonal
loop_
_symmetry_equiv_pos_as_xyz
  x,y,z
  -y,x-y,z
  -x+y,-x,z
  -x,-y,z+1/2
  y,-x+y,z+1/2
  x-y,x,z+1/2
  -y,-x,z
  -x+y,y,z
  x,x-y,z
  y,x,z+1/2
  x-y,-y,z+1/2
  -x,-x+y,z+1/2
_cell_length_a                    3.0780
_cell_length_b                    3.0780
_cell_length_c                    10.0460
_cell_angle_alpha                 90.0000
_cell_angle_beta                  90.0000
_cell_angle_gamma                 120.0000
loop_
_atom_site_label
_atom_site_type_symbol
_atom_site_fract_x
_atom_site_fract_y
_atom_site_fract_z
_atom_site_U_iso_or_equiv
_atom_site_adp_type
_atom_site_occupancy
C1     C     0.00000   0.00000   0.18800   0.00000  Uiso   1.00
Si2    Si    0.00000   0.00000   0.00000   0.00000  Uiso   1.00
C3     C     0.66667   0.33333   0.43900   0.00000  Uiso   1.00
Si4    Si    0.66667   0.33333   0.25080   0.00000  Uiso   1.00
loop_
_geom_bond_atom_site_label_1
_geom_bond_atom_site_label_2
_geom_bond_distance
_geom_bond_site_symmetry_2
_ccdc_geom_bond_type
C1     Si2     1.889   .     S
C1     Si4     1.886   .     S
C1     Si4     1.886   1_455 S
C1     Si4     1.886   1_445 S
Si2    C3      1.880   4_664 S
Si2    C3      1.880   4_554 S
Si2    C3      1.880   4_654 S
C3     Si4     1.891   .     S
C3     Si2     1.880   4_665 S
C3     Si2     1.880   4     S
C3     Si2     1.880   4_655 S
Si4    C1      1.886   1_655 S
Si4    C1      1.886   1_665 S
