data_SiO2_cristobalite_low
_audit_creation_date              2022-06-09
_audit_creation_method            'Materials Studio'
_symmetry_space_group_name_H-M    'P41212'
_symmetry_Int_Tables_number       92
_symmetry_cell_setting            tetragonal
loop_
_symmetry_equiv_pos_as_xyz
  x,y,z
  -x,-y,z+1/2
  -y+1/2,x+1/2,z+1/4
  y+1/2,-x+1/2,z+3/4
  -x+1/2,y+1/2,-z+1/4
  x+1/2,-y+1/2,-z+3/4
  y,x,-z
  -y,-x,-z+1/2
_cell_length_a                    4.9780
_cell_length_b                    4.9780
_cell_length_c                    6.9480
_cell_angle_alpha                 90.0000
_cell_angle_beta                  90.0000
_cell_angle_gamma                 90.0000
loop_
_atom_site_label
_atom_site_type_symbol
_atom_site_fract_x
_atom_site_fract_y
_atom_site_fract_z
_atom_site_U_iso_or_equiv
_atom_site_adp_type
_atom_site_occupancy
O      O     0.23976   0.10324   0.17844   0.00000  Uiso   1.00
SI     Si    0.30004   0.30004   0.00000   0.00000  Uiso   1.00
loop_
_geom_bond_atom_site_label_1
_geom_bond_atom_site_label_2
_geom_bond_distance
_geom_bond_site_symmetry_2
_ccdc_geom_bond_type
O      SI      1.608   .     S
O      SI      1.601   3_545 S
SI     O       1.608   7     S
SI     O       1.601   5     S
SI     O       1.601   4_554 S
