data_SiO2_stishovite
_audit_creation_date              2022-06-09
_audit_creation_method            'Materials Studio'
_symmetry_space_group_name_H-M    'P42/MNM'
_symmetry_Int_Tables_number       136
_symmetry_cell_setting            tetragonal
loop_
_symmetry_equiv_pos_as_xyz
  x,y,z
  -x,-y,z
  -y+1/2,x+1/2,z+1/2
  y+1/2,-x+1/2,z+1/2
  -x+1/2,y+1/2,-z+1/2
  x+1/2,-y+1/2,-z+1/2
  y,x,-z
  -y,-x,-z
  -x,-y,-z
  x,y,-z
  y+1/2,-x+1/2,-z+1/2
  -y+1/2,x+1/2,-z+1/2
  x+1/2,-y+1/2,z+1/2
  -x+1/2,y+1/2,z+1/2
  -y,-x,z
  y,x,z
_cell_length_a                    4.1772
_cell_length_b                    4.1772
_cell_length_c                    2.6651
_cell_angle_alpha                 90.0000
_cell_angle_beta                  90.0000
_cell_angle_gamma                 90.0000
loop_
_atom_site_label
_atom_site_type_symbol
_atom_site_fract_x
_atom_site_fract_y
_atom_site_fract_z
_atom_site_U_iso_or_equiv
_atom_site_adp_type
_atom_site_occupancy
SI1    Si    0.00000   0.00000   0.00000   0.00000  Uiso   1.00
O1     O     0.30620   0.30620   0.00000   0.00000  Uiso   1.00
loop_
_geom_bond_atom_site_label_1
_geom_bond_atom_site_label_2
_geom_bond_distance
_geom_bond_site_symmetry_2
_ccdc_geom_bond_type
SI1    O1      1.809   .     S
SI1    O1      1.809   2     S
SI1    SI1     2.665   1_554 S
SI1    SI1     2.665   1_556 S
SI1    O1      1.757   3_545 S
SI1    O1      1.757   4_455 S
SI1    O1      1.757   4_454 S
SI1    O1      1.757   3_544 S
O1     SI1     1.757   3_554 S
O1     SI1     1.757   3     S
