data_TiO2_brookite
_audit_creation_date              2022-06-09
_audit_creation_method            'Materials Studio'
_symmetry_space_group_name_H-M    'PBCA'
_symmetry_Int_Tables_number       61
_symmetry_cell_setting            orthorhombic
loop_
_symmetry_equiv_pos_as_xyz
  x,y,z
  -x+1/2,-y,z+1/2
  -x,y+1/2,-z+1/2
  x+1/2,-y+1/2,-z
  -x,-y,-z
  x+1/2,y,-z+1/2
  x,-y+1/2,z+1/2
  -x+1/2,y+1/2,z
_cell_length_a                    9.1660
_cell_length_b                    5.4360
_cell_length_c                    5.1350
_cell_angle_alpha                 90.0000
_cell_angle_beta                  90.0000
_cell_angle_gamma                 90.0000
loop_
_atom_site_label
_atom_site_type_symbol
_atom_site_fract_x
_atom_site_fract_y
_atom_site_fract_z
_atom_site_U_iso_or_equiv
_atom_site_adp_type
_atom_site_occupancy
Ti1    Ti    0.12700   0.11320  -0.12700   0.00000  Uiso   1.00
O2     O     0.01000   0.15500   0.18000   0.00000  Uiso   1.00
O3     O     0.23000   0.10500  -0.46500   0.00000  Uiso   1.00
loop_
_geom_bond_atom_site_label_1
_geom_bond_atom_site_label_2
_geom_bond_distance
_geom_bond_site_symmetry_2
_ccdc_geom_bond_type
Ti1    O2      1.920   .     S
Ti1    O3      1.982   7     S
Ti1    O2      1.929   7_554 S
Ti1    O3      1.954   2     S
Ti1    O2      1.943   5     S
O2     Ti1     1.929   7     S
O2     Ti1     1.943   5     S
O3     Ti1     1.982   7_554 S
O3     Ti1     1.954   2_554 S
