# generated using pymatgen
data_ZnWO3
_symmetry_space_group_name_H-M   Pnma
_cell_length_a   5.38402300
_cell_length_b   7.94074400
_cell_length_c   5.33048600
_cell_angle_alpha   90.00000000
_cell_angle_beta   90.00000000
_cell_angle_gamma   90.00000000
_symmetry_Int_Tables_number   62
_chemical_formula_structural   ZnWO3
_chemical_formula_sum   'Zn4 W4 O12'
_cell_volume   227.89505865
_cell_formula_units_Z   4
loop_
 _symmetry_equiv_pos_site_id
 _symmetry_equiv_pos_as_xyz
  1  'x, y, z'
  2  '-x, -y, -z'
  3  '-x+1/2, -y, z+1/2'
  4  'x+1/2, y, -z+1/2'
  5  'x+1/2, -y+1/2, -z+1/2'
  6  '-x+1/2, y+1/2, z+1/2'
  7  '-x, y+1/2, -z'
  8  'x, -y+1/2, z'
loop_
 _atom_type_symbol
 _atom_type_oxidation_number
  Zn2+  2.0
  W4+  4.0
  O2-  -2.0
loop_
 _atom_site_type_symbol
 _atom_site_label
 _atom_site_symmetry_multiplicity
 _atom_site_fract_x
 _atom_site_fract_y
 _atom_site_fract_z
 _atom_site_occupancy
  Zn2+  Zn0  4  0.01911400  0.25000000  0.51843800  1
  W4+  W1  4  0.00000000  0.00000000  0.00000000  1
  O2-  O2  8  0.17661600  0.56862400  0.66273400  1
  O2-  O3  4  0.10466500  0.75000000  0.11456100  1
