data_ZrO2_monoclinic
_audit_creation_date              2022-06-09
_audit_creation_method            'Materials Studio'
_symmetry_space_group_name_H-M    'P21/C'
_symmetry_Int_Tables_number       14
_symmetry_cell_setting            monoclinic
loop_
_symmetry_equiv_pos_as_xyz
  x,y,z
  -x,y+1/2,-z+1/2
  -x,-y,-z
  x,-y+1/2,z+1/2
_cell_length_a                    5.1454
_cell_length_b                    5.2075
_cell_length_c                    5.3107
_cell_angle_alpha                 90.0000
_cell_angle_beta                  99.2300
_cell_angle_gamma                 90.0000
loop_
_atom_site_label
_atom_site_type_symbol
_atom_site_fract_x
_atom_site_fract_y
_atom_site_fract_z
_atom_site_U_iso_or_equiv
_atom_site_adp_type
_atom_site_occupancy
ZR     Zr    0.27580   0.04110   0.20820   0.00000  Uiso   1.00
O1     O     0.07030   0.33590   0.34060   0.00000  Uiso   1.00
O2     O     0.44230   0.75490   0.47890   0.00000  Uiso   1.00
loop_
_geom_bond_atom_site_label_1
_geom_bond_atom_site_label_2
_geom_bond_distance
_geom_bond_site_symmetry_2
_ccdc_geom_bond_type
ZR     O1      2.051   .     S
ZR     O2      2.189   2_645 S
ZR     O2      2.285   3_666 S
ZR     O1      2.163   4_554 S
ZR     O2      2.151   1_545 S
ZR     O2      2.220   4_554 S
ZR     O1      2.057   2_545 S
O1     ZR      2.163   4     S
O1     ZR      2.057   2     S
O2     ZR      2.189   2_655 S
O2     ZR      2.285   3_666 S
O2     ZR      2.151   1_565 S
O2     ZR      2.220   4     S
